Version 4
SHEET 1 2240 804
WIRE 624 -704 624 -768
WIRE 624 -704 448 -704
WIRE 448 -672 448 -704
WIRE 624 -672 624 -704
WIRE 800 -592 624 -592
WIRE 288 -544 192 -544
WIRE 448 -544 448 -592
WIRE 448 -544 368 -544
WIRE 560 -544 448 -544
WIRE 1280 -448 1216 -448
WIRE 624 -432 624 -496
WIRE -576 -384 -672 -384
WIRE -480 -384 -496 -384
WIRE -432 -384 -480 -384
WIRE 192 -384 192 -544
WIRE 192 -384 -240 -384
WIRE -672 -368 -672 -384
WIRE 1856 -304 1856 -352
WIRE -528 -288 -672 -288
WIRE -480 -288 -480 -320
WIRE -480 -288 -528 -288
WIRE -432 -288 -480 -288
WIRE -224 -288 -240 -288
WIRE -528 -240 -528 -288
WIRE -224 -240 -224 -288
WIRE 1440 -208 1440 -272
WIRE 1440 -208 1248 -208
WIRE 1856 -192 1856 -224
WIRE 256 -144 192 -144
WIRE 368 -144 336 -144
WIRE 432 -144 368 -144
WIRE 1248 -128 1248 -208
WIRE 1296 -128 1248 -128
WIRE 1712 -112 1712 -272
WIRE 1712 -112 1360 -112
WIRE 1808 -112 1712 -112
WIRE 656 -96 496 -96
WIRE 768 -96 720 -96
WIRE 864 -96 768 -96
WIRE 1216 -96 1216 -448
WIRE 1216 -96 864 -96
WIRE 1296 -96 1216 -96
WIRE 1856 -32 1856 -96
WIRE 1856 -32 1712 -32
WIRE 768 -16 768 -32
WIRE 816 -16 768 -16
WIRE 864 -16 816 -16
WIRE 1856 0 1856 -32
WIRE 816 48 816 -16
FLAG -448 -704 0
FLAG -448 -784 Vcc
FLAG -288 -704 0
FLAG -288 -784 5V
FLAG -672 -384 PUMP_SPY_LINE
FLAG 800 -592 RESET_LINE
FLAG 1328 -144 5V
FLAG 1328 -80 0
FLAG 1360 -272 5V
FLAG 1520 -272 0
FLAG 1856 0 0
FLAG 1856 -352 Vcc
FLAG 1280 -448 TEMPO
FLAG 1712 -272 FAN_MOSDRIVE
FLAG 624 -432 0
FLAG -528 -240 0
FLAG -224 -240 0
FLAG 624 -768 5V
FLAG 496 -336 5V
FLAG 816 48 0
FLAG 192 -144 RESET_LINE
FLAG 368 -64 0
FLAG 496 -16 0
SYMBOL LED 480 -256 R0
WINDOW 3 -149 39 Left 2
SYMATTR Value NSSWS108T
SYMATTR InstName D1
SYMATTR Description Diode
SYMATTR Type diode
SYMBOL cap 752 -96 R0
SYMATTR InstName C1
SYMATTR Value 470µ
SYMBOL voltage -448 -800 R0
WINDOW 123 0 0 Left 0
WINDOW 39 0 0 Left 0
SYMATTR InstName V1
SYMATTR Value 12
SYMBOL voltage -288 -800 R0
WINDOW 123 0 0 Left 0
WINDOW 39 0 0 Left 0
SYMATTR InstName V2
SYMATTR Value 5
SYMBOL res 640 -576 R180
WINDOW 0 36 76 Left 2
WINDOW 3 36 40 Left 2
SYMATTR InstName R7
SYMATTR Value 1k
SYMBOL cap -496 -384 R0
SYMATTR InstName C2
SYMATTR Value 100n
SYMBOL res 1456 -288 R90
WINDOW 0 0 56 VBottom 2
WINDOW 3 32 56 VTop 2
SYMATTR InstName R8
SYMATTR Value 10k
SYMBOL res 1536 -288 R90
WINDOW 0 0 56 VBottom 2
WINDOW 3 32 56 VTop 2
SYMATTR InstName R9
SYMATTR Value 10k
SYMBOL Comparators\\LTC6752 1328 -176 R0
SYMATTR InstName U1
SYMBOL nmos 1808 -192 R0
SYMATTR InstName M1
SYMATTR Value BSB012N03LX3
SYMBOL res 1840 -320 R0
SYMATTR InstName R13
SYMATTR Value 20
SYMBOL npn 560 -592 R0
SYMATTR InstName Q3
SYMATTR Value BC817-40
SYMBOL Optos\\PC817B -336 -336 R0
SYMATTR InstName U2
SYMBOL Misc\\signal -672 -384 R0
WINDOW 123 0 0 Left 0
WINDOW 39 0 0 Left 0
SYMATTR InstName V3
SYMATTR Value PULSE(0 5 0 1n 1n 10 120 100)
SYMBOL res -480 -400 R90
WINDOW 0 0 56 VBottom 2
WINDOW 3 32 56 VTop 2
SYMATTR InstName R18
SYMATTR Value 1k
SYMBOL res 480 -352 R0
SYMATTR InstName R14
SYMATTR Value 470
SYMBOL res 352 -160 R90
WINDOW 0 0 56 VBottom 2
WINDOW 3 32 56 VTop 2
SYMATTR InstName R16
SYMATTR Value 1k
SYMBOL res 464 -576 R180
WINDOW 0 36 76 Left 2
WINDOW 3 36 40 Left 2
SYMATTR InstName R17
SYMATTR Value 56k
SYMBOL res 848 -112 R0
SYMATTR InstName R4
SYMATTR Value 390k
SYMBOL res 1728 -16 R180
WINDOW 0 36 76 Left 2
WINDOW 3 36 40 Left 2
SYMATTR InstName R1
SYMATTR Value 1k
SYMBOL res 384 -560 R90
WINDOW 0 0 56 VBottom 2
WINDOW 3 32 56 VTop 2
SYMATTR InstName R3
SYMATTR Value 1k
SYMBOL npn 432 -192 R0
SYMATTR InstName Q1
SYMATTR Value BC817-40
SYMBOL res 352 -160 R0
SYMATTR InstName R2
SYMATTR Value 56k
SYMBOL diode 656 -80 R270
WINDOW 0 32 32 VTop 2
WINDOW 3 0 32 VBottom 2
SYMATTR InstName D2
SYMATTR Value 1N4148
SYMBOL res 480 -112 R0
SYMATTR InstName R5
SYMATTR Value 1k
TEXT -1136 -288 Left 2 !.tran 0 300 0
TEXT 656 456 Left 2 ;|     C    (µFarads)  |       R  (kOhms)     |   Fall time (s) |\n|              470       |           220            |        71          |\n|              470       |           330            |        106        |\n|              470       |           390            |        125        |
TEXT 344 64 Left 2 ;Pump ON\nLED
TEXT 736 -192 Left 2 ;Timing RC tank
TEXT 416 -912 Left 2 ;NE555 reset circuitry\nForces reset line to 0.2V when pump\nis inactive
TEXT 1168 -552 Left 2 ;Timing comparator\nDrives the cooling fan main mosfet driver
RECTANGLE Normal 976 80 640 -160 2
RECTANGLE Normal 1024 -400 208 -832 2
RECTANGLE Normal 1616 80 1120 -480 2
