Version 4
SHEET 1 880 1268
WIRE -320 -480 -448 -480
WIRE -224 -480 -320 -480
WIRE 32 -480 -224 -480
WIRE -320 -400 -320 -480
WIRE -448 -384 -448 -480
WIRE -320 -256 -320 -320
WIRE -368 -240 -384 -240
WIRE -448 -208 -448 -304
WIRE -384 -208 -384 -240
WIRE -384 -208 -448 -208
WIRE -736 -160 -960 -160
WIRE -576 -160 -656 -160
WIRE -512 -160 -576 -160
WIRE -160 -160 -320 -160
WIRE -512 -128 -512 -160
WIRE -496 -128 -512 -128
WIRE 128 -128 -96 -128
WIRE -448 -64 -448 -112
WIRE 32 -64 32 -480
WIRE -160 -48 -160 -160
WIRE -160 -48 -256 -48
WIRE -96 -48 -96 -128
WIRE -96 -48 -160 -48
WIRE -16 -48 -96 -48
WIRE -1376 -16 -1392 -16
WIRE -1216 -16 -1232 -16
WIRE -624 0 -864 0
WIRE -432 0 -544 0
WIRE -432 32 -432 0
WIRE -304 32 -432 32
WIRE -1376 64 -1376 -16
WIRE -1216 64 -1216 -16
WIRE -960 64 -960 -160
WIRE -864 64 -864 0
WIRE 32 160 32 32
WIRE -1376 176 -1376 144
WIRE -1216 176 -1216 144
WIRE -960 192 -960 144
WIRE -864 192 -864 144
FLAG -864 192 0
FLAG -1216 176 0
FLAG -1232 -16 Vcc
FLAG -224 -480 Vcc
FLAG -1376 176 0
FLAG -1392 -16 5V
FLAG 32 160 0
FLAG -960 192 0
FLAG -448 -64 0
FLAG 128 -128 Gate
FLAG -256 48 0
FLAG -432 112 0
FLAG -576 -80 0
SYMBOL Misc\\signal -864 48 R0
WINDOW 3 -217 266 Left 2
WINDOW 123 0 0 Left 0
WINDOW 39 0 0 Left 0
SYMATTR InstName V1
SYMATTR Value PULSE(0 5 0 1n 1n 2u 5u 1k)
SYMBOL voltage -1216 48 R0
WINDOW 123 0 0 Left 0
WINDOW 39 0 0 Left 0
SYMATTR InstName V3
SYMATTR Value 12
SYMBOL voltage -1376 48 R0
WINDOW 123 0 0 Left 0
WINDOW 39 0 0 Left 0
SYMATTR InstName V4
SYMATTR Value 5
SYMBOL pmos -16 32 M180
SYMATTR InstName M3
SYMATTR Value RRS140P03
SYMBOL Misc\\signal -960 48 R0
WINDOW 3 -217 266 Left 2
WINDOW 123 0 0 Left 0
WINDOW 39 0 0 Left 0
SYMATTR InstName V2
SYMATTR Value PULSE(0 5 2.5u 1n 1n 2u 5u 1k)
SYMBOL res -640 -176 R90
WINDOW 0 0 56 VBottom 2
WINDOW 3 32 56 VTop 2
SYMATTR InstName R1
SYMATTR Value 100
SYMBOL res -464 -400 R0
SYMATTR InstName R2
SYMATTR Value 100
SYMBOL res -528 -16 R90
WINDOW 0 0 56 VBottom 2
WINDOW 3 32 56 VTop 2
SYMATTR InstName R3
SYMATTR Value 100
SYMBOL res -336 -416 R0
SYMATTR InstName R4
SYMATTR Value 3.3
SYMBOL pmos -368 -160 M180
SYMATTR InstName M1
SYMATTR Value AO3423
SYMBOL nmos -304 -48 R0
SYMATTR InstName M2
SYMATTR Value RSQ015N06
SYMBOL res -448 16 R0
SYMATTR InstName R5
SYMATTR Value 5.6k
SYMBOL nmos -496 -208 R0
SYMATTR InstName M4
SYMATTR Value RSQ015N06
SYMBOL res -592 -176 R0
SYMATTR InstName R6
SYMATTR Value 5.6k
TEXT -1438 888 Left 2 !.tran 0 10u 2u
