Version 4
SHEET 1 3284 948
WIRE 1728 -256 1680 -256
WIRE 1568 -192 1568 -240
WIRE 1680 -192 1680 -256
WIRE 1680 -192 1568 -192
WIRE 1568 -176 1568 -192
WIRE 704 -144 528 -144
WIRE 704 -112 704 -144
WIRE 704 -112 592 -112
WIRE 800 -112 704 -112
WIRE 1456 -112 1408 -112
WIRE 528 -80 528 -144
WIRE 528 -80 -32 -80
WIRE 592 -80 592 -112
WIRE 800 -80 800 -112
WIRE 1408 -48 1408 -112
WIRE 80 -32 16 -32
WIRE 352 -32 304 -32
WIRE 1568 -32 1568 -80
WIRE 1696 -32 1568 -32
WIRE 1568 0 1568 -32
WIRE 1696 16 1696 -32
WIRE 80 32 -48 32
WIRE 448 32 304 32
WIRE 496 32 448 32
WIRE 592 32 592 -16
WIRE 608 32 592 32
WIRE 720 32 688 32
WIRE 800 32 800 -16
WIRE -32 96 -32 -80
WIRE 80 96 -32 96
WIRE 480 96 304 96
WIRE 688 96 688 32
WIRE 688 96 480 96
WIRE 768 96 688 96
WIRE -16 160 -128 160
WIRE 80 160 -16 160
WIRE 544 160 304 160
WIRE 544 176 544 160
WIRE 688 176 688 96
WIRE -544 208 -688 208
WIRE -496 208 -544 208
WIRE -368 208 -416 208
WIRE -224 208 -368 208
WIRE -192 208 -224 208
WIRE -224 224 -224 208
WIRE -48 224 -48 32
WIRE 480 224 480 96
WIRE 480 224 -48 224
WIRE 1584 224 1520 224
WIRE 1632 224 1584 224
WIRE -544 240 -544 208
WIRE 1520 256 1520 224
WIRE -16 272 -16 160
WIRE 48 272 -16 272
WIRE 544 272 544 240
WIRE 688 272 688 240
WIRE -368 320 -368 272
WIRE -224 320 -224 304
WIRE 1632 320 1632 304
WIRE 1872 320 1632 320
WIRE 1632 336 1632 320
WIRE -128 368 -128 256
WIRE 1424 384 1280 384
WIRE 1520 384 1520 336
WIRE 1520 384 1488 384
WIRE 1568 384 1520 384
WIRE 704 432 704 368
WIRE 704 432 512 432
WIRE 1520 432 1520 384
WIRE 1280 448 1280 384
WIRE 1632 464 1632 432
WIRE 1728 464 1632 464
WIRE 1728 496 1728 464
WIRE 512 512 512 432
WIRE 560 512 512 512
WIRE 720 528 624 528
WIRE 448 544 368 544
WIRE 560 544 448 544
WIRE 1632 560 1632 544
WIRE 128 672 128 560
WIRE -384 704 -384 624
WIRE -384 704 -400 704
WIRE -240 704 -384 704
WIRE 752 704 752 640
WIRE 752 704 560 704
WIRE -240 720 -240 704
WIRE -112 720 -240 720
WIRE 64 720 -32 720
WIRE -544 752 -624 752
WIRE 496 768 128 768
WIRE 560 784 560 704
WIRE 608 784 560 784
WIRE 768 800 672 800
WIRE 496 816 496 768
WIRE 608 816 496 816
WIRE -400 832 -400 800
WIRE 128 864 128 768
WIRE 176 864 128 864
WIRE 256 928 256 864
FLAG 16 -32 0
FLAG -528 80 0
FLAG -528 0 Vcc
FLAG 352 -32 Vcc
FLAG 544 272 0
FLAG 688 272 0
FLAG 1568 80 0
FLAG 1696 80 0
FLAG 496 32 NE-Out
FLAG 1728 -256 Fet-out
FLAG 1872 320 npn-out
FLAG 1632 560 0
FLAG 1200 384 NE-Out
FLAG 1728 560 0
FLAG 1520 512 0
FLAG 768 96 SAW
FLAG 1280 528 0
FLAG -368 80 0
FLAG -368 0 5V
FLAG 1584 224 5V
FLAG 1328 -112 NE-Out
FLAG 1408 32 0
FLAG 1568 -320 5V
FLAG 592 496 5V
FLAG 592 560 0
FLAG 624 368 5V
FLAG 784 368 0
FLAG 368 544 NE-Out
FLAG -544 320 0
FLAG -128 368 0
FLAG -224 320 0
FLAG 720 528 COMP-Out
FLAG -128 80 Vcc
FLAG -368 320 0
FLAG -400 832 0
FLAG -384 480 Vcc
FLAG 448 -48 Vcc
FLAG 448 608 0
FLAG 128 928 0
FLAG 640 768 5V
FLAG 640 832 0
FLAG 672 640 5V
FLAG 832 640 0
FLAG 768 800 FAN_TRIGGER
FLAG 256 928 0
FLAG 48 272 RESET_LINE
FLAG -624 752 RESET_LINE
FLAG 128 560 5V
FLAG -688 208 PUMP_SPY_LINE
SYMBOL Misc\\NE555 192 64 R0
SYMATTR InstName U1
SYMBOL voltage -528 -16 R0
WINDOW 123 0 0 Left 0
WINDOW 39 0 0 Left 0
SYMATTR InstName V1
SYMATTR Value 12
SYMBOL cap 528 176 R0
SYMATTR InstName C1
SYMATTR Value 10n
SYMBOL cap 672 176 R0
SYMATTR InstName C2
SYMATTR Value 10p
SYMBOL res 592 48 R270
WINDOW 0 32 56 VTop 2
WINDOW 3 0 56 VBottom 2
SYMATTR InstName R1
SYMATTR Value 9.9k
SYMBOL res 704 48 R270
WINDOW 0 32 56 VTop 2
WINDOW 3 0 56 VBottom 2
SYMATTR InstName R2
SYMATTR Value 100
SYMBOL diode 576 -80 R0
SYMATTR InstName D1
SYMATTR Value 1N4148
SYMBOL diode 784 -16 M180
WINDOW 0 24 64 Left 2
WINDOW 3 24 0 Left 2
SYMATTR InstName D2
SYMATTR Value 1N4148
SYMBOL njf 1520 -176 R0
SYMATTR InstName J1
SYMATTR Value 2N5432
SYMBOL res 1552 -336 R0
SYMATTR InstName R4
SYMATTR Value 20
SYMBOL res 1552 -16 R0
SYMATTR InstName R5
SYMATTR Value 10
SYMBOL cap 1680 16 R0
SYMATTR InstName C4
SYMATTR Value 10n
SYMBOL res 1616 208 R0
SYMATTR InstName R10
SYMATTR Value 5k
SYMBOL cap 1488 368 R90
WINDOW 0 0 32 VBottom 2
WINDOW 3 32 32 VTop 2
SYMATTR InstName C3
SYMATTR Value 22n
SYMBOL res 1504 240 R0
SYMATTR InstName R9
SYMATTR Value 20k
SYMBOL cap 1520 -128 R90
WINDOW 0 0 32 VBottom 2
WINDOW 3 32 32 VTop 2
SYMATTR InstName C5
SYMATTR Value 10p
SYMBOL res 1616 448 R0
SYMATTR InstName R7
SYMATTR Value 220
SYMBOL npn 1568 336 R0
SYMATTR InstName Q1
SYMATTR Value BC817-40
SYMBOL cap 1712 496 R0
SYMATTR InstName C6
SYMATTR Value 10p
SYMBOL res 1296 368 R90
WINDOW 0 0 56 VBottom 2
WINDOW 3 32 56 VTop 2
SYMATTR InstName R6
SYMATTR Value 1k
SYMBOL res 1504 416 R0
SYMATTR InstName R8
SYMATTR Value 2k
SYMBOL res 1296 544 R180
WINDOW 0 36 76 Left 2
WINDOW 3 36 40 Left 2
SYMATTR InstName R11
SYMATTR Value 100
SYMBOL voltage -368 -16 R0
WINDOW 123 0 0 Left 0
WINDOW 39 0 0 Left 0
SYMATTR InstName V2
SYMATTR Value 5
SYMBOL res 1424 -128 R90
WINDOW 0 0 56 VBottom 2
WINDOW 3 32 56 VTop 2
SYMATTR InstName R12
SYMATTR Value 1k
SYMBOL res 1424 48 R180
WINDOW 0 36 76 Left 2
WINDOW 3 36 40 Left 2
SYMATTR InstName R13
SYMATTR Value 200
SYMBOL res 720 352 R90
WINDOW 0 0 56 VBottom 2
WINDOW 3 32 56 VTop 2
SYMATTR InstName R14
SYMATTR Value 10k
SYMBOL res 800 352 R90
WINDOW 0 0 56 VBottom 2
WINDOW 3 32 56 VTop 2
SYMATTR InstName R15
SYMATTR Value 10k
SYMBOL Comparators\\LTC6752 592 464 R0
SYMATTR InstName U2
SYMBOL pnp -192 256 M180
SYMATTR InstName Q2
SYMATTR Value BC807-40
SYMBOL res -400 192 R90
WINDOW 0 0 56 VBottom 2
WINDOW 3 32 56 VTop 2
SYMATTR InstName R18
SYMATTR Value 56k
SYMBOL res -208 320 R180
WINDOW 0 36 76 Left 2
WINDOW 3 36 40 Left 2
SYMATTR InstName R19
SYMATTR Value 1k
SYMBOL voltage -544 224 R0
WINDOW 123 0 0 Left 0
WINDOW 39 0 0 Left 0
SYMATTR InstName V3
SYMATTR Value PULSE(0 12 0 5u 0 400u 1m 20)
SYMBOL res -112 176 R180
WINDOW 0 36 76 Left 2
WINDOW 3 36 40 Left 2
SYMATTR InstName R16
SYMATTR Value 56k
SYMBOL cap -384 208 R0
SYMATTR InstName C7
SYMATTR Value 100n
SYMBOL npn -464 704 R0
SYMATTR InstName Q3
SYMATTR Value BC817-40
SYMBOL res -448 736 R90
WINDOW 0 0 56 VBottom 2
WINDOW 3 32 56 VTop 2
SYMATTR InstName R20
SYMATTR Value 1k
SYMBOL res -368 640 R180
WINDOW 0 36 76 Left 2
WINDOW 3 36 40 Left 2
SYMATTR InstName R21
SYMATTR Value 470
SYMBOL LED -400 480 R0
SYMATTR InstName D3
SYMATTR Value NSSWS108T
SYMATTR Description Diode
SYMATTR Type diode
SYMBOL res 432 -64 R0
SYMATTR InstName R3
SYMATTR Value 470
SYMBOL zener 464 608 R180
WINDOW 0 24 64 Left 2
WINDOW 3 24 0 Left 2
SYMATTR InstName D4
SYMATTR Value 1N750
SYMBOL cap 112 864 R0
SYMATTR InstName C8
SYMATTR Value 470µ
SYMBOL res 272 848 R90
WINDOW 0 0 56 VBottom 2
WINDOW 3 32 56 VTop 2
SYMATTR InstName R22
SYMATTR Value 370k
SYMBOL res 768 624 R90
WINDOW 0 0 56 VBottom 2
WINDOW 3 32 56 VTop 2
SYMATTR InstName R23
SYMATTR Value 10k
SYMBOL res 848 624 R90
WINDOW 0 0 56 VBottom 2
WINDOW 3 32 56 VTop 2
SYMATTR InstName R24
SYMATTR Value 10k
SYMBOL Comparators\\LTC6752 640 736 R0
SYMATTR InstName U3
SYMBOL pnp 64 768 M180
SYMATTR InstName Q4
SYMATTR Value BC807-40
SYMBOL res -16 704 R90
WINDOW 0 0 56 VBottom 2
WINDOW 3 32 56 VTop 2
SYMATTR InstName R17
SYMATTR Value 1k
TEXT -976 272 Left 2 !.tran 0 1m 1n 1u
