Version 4
SHEET 1 880 680
WIRE 336 -160 176 -160
WIRE 528 -160 336 -160
WIRE 176 -144 176 -160
WIRE 176 -32 176 -64
WIRE 176 -16 176 -32
WIRE 176 80 176 64
WIRE 208 80 176 80
WIRE 320 80 288 80
WIRE 432 80 320 80
WIRE 176 96 176 80
WIRE 320 112 320 80
WIRE 432 112 432 80
WIRE 128 176 -160 176
WIRE 176 256 176 192
FLAG 176 256 0
FLAG 320 256 0
FLAG 336 -96 0
FLAG -160 256 0
FLAG 528 -80 0
FLAG 432 192 0
FLAG 32 -32 0
SYMBOL nmos 128 96 R0
WINDOW 3 -180 1 Left 2
SYMATTR InstName M1
SYMATTR Value Si1555DL_N
SYMBOL res 160 -160 R0
SYMATTR InstName R1
SYMATTR Value 420
SYMBOL ind 160 -32 R0
SYMATTR InstName L1
SYMATTR Value 10µ
SYMBOL cap 304 192 R0
SYMATTR InstName C1
SYMATTR Value 20p
SYMBOL cap 320 -160 R0
SYMATTR InstName C2
SYMATTR Value 1µ
SYMATTR SpiceLine V=16 Irms=0 Rser=0 Lser=0 mfg="Murata" pn="GCM219R71C105MA37" type="X7R"
SYMBOL Misc\\signal -160 160 R0
WINDOW 123 0 0 Left 0
WINDOW 39 0 0 Left 0
SYMATTR InstName V1
SYMATTR Value PULSE(0 5 0 1n 1n 1u 2u 500)
SYMBOL voltage 528 -176 R0
WINDOW 123 0 0 Left 0
WINDOW 39 24 44 Left 2
SYMATTR InstName V2
SYMATTR Value 5
SYMATTR SpiceLine Rser=2
SYMBOL res 416 96 R0
SYMATTR InstName R2
SYMATTR Value 56k
SYMBOL res 304 96 R0
SYMATTR InstName R3
SYMATTR Value 50
SYMBOL ind 192 96 R270
WINDOW 0 32 56 VTop 2
WINDOW 3 5 56 VBottom 2
SYMATTR InstName L2
SYMATTR Value 1µ
SYMBOL cap 96 -48 R90
WINDOW 0 0 32 VBottom 2
WINDOW 3 32 32 VTop 2
SYMATTR InstName C3
SYMATTR Value 20p
SYMBOL res 192 -48 R90
WINDOW 0 0 56 VBottom 2
WINDOW 3 32 56 VTop 2
SYMATTR InstName R4
SYMATTR Value 50
TEXT -194 284 Left 2 !.tran 10u
