Version 4
SHEET 1 2240 804
WIRE 768 -1104 256 -1104
WIRE 256 -1024 256 -1104
WIRE -64 -976 -128 -976
WIRE 0 -976 -64 -976
WIRE 128 -976 80 -976
WIRE 192 -976 128 -976
WIRE -64 -912 -64 -976
WIRE 96 -512 96 -560
WIRE 624 -512 624 -608
WIRE 768 -432 768 -1104
WIRE 768 -432 624 -432
WIRE 800 -432 768 -432
WIRE -272 -384 -368 -384
WIRE -176 -384 -192 -384
WIRE -128 -384 -176 -384
WIRE 96 -384 96 -432
WIRE 96 -384 64 -384
WIRE 128 -384 96 -384
WIRE 288 -384 128 -384
WIRE 560 -384 368 -384
WIRE -368 -368 -368 -384
WIRE -224 -288 -368 -288
WIRE -176 -288 -176 -320
WIRE -176 -288 -224 -288
WIRE -128 -288 -176 -288
WIRE 80 -288 64 -288
WIRE 624 -272 624 -336
WIRE -224 -240 -224 -288
WIRE 80 -240 80 -288
WIRE 304 -176 224 -176
WIRE 352 -176 304 -176
WIRE 128 -144 128 -384
WIRE 224 -144 224 -176
WIRE 2048 -128 2048 -176
WIRE 352 -80 352 -176
WIRE 128 -32 128 -64
WIRE 224 -32 224 -64
WIRE 224 -32 128 -32
WIRE 288 -32 224 -32
WIRE 1728 -32 1728 -48
WIRE 2048 -16 2048 -48
WIRE 1728 64 1728 48
WIRE 1904 64 1904 -96
WIRE 1904 64 1728 64
WIRE 2000 64 1904 64
WIRE 768 112 768 0
WIRE 1296 144 1296 80
WIRE 1296 144 1104 144
WIRE 704 160 608 160
WIRE 2048 176 2048 80
WIRE 1728 192 1728 64
WIRE 1152 224 912 224
WIRE 1472 240 1216 240
WIRE 1584 240 1472 240
WIRE 768 256 768 208
WIRE 912 256 912 224
WIRE 912 256 768 256
WIRE 944 256 912 256
WIRE 1104 256 1104 144
WIRE 1152 256 1104 256
WIRE 768 304 768 256
WIRE 816 304 768 304
WIRE 1728 352 1728 288
WIRE 896 368 896 304
FLAG 768 368 0
FLAG 896 368 0
FLAG 768 0 5V
FLAG 144 -672 0
FLAG 144 -752 Vcc
FLAG 304 -672 0
FLAG 304 -752 5V
FLAG -368 -384 PUMP_SPY_LINE
FLAG 800 -432 RESET_LINE
FLAG 1184 208 5V
FLAG 1184 272 0
FLAG 1216 80 5V
FLAG 1376 80 0
FLAG 1472 240 NOT_FAN_TRIGGER
FLAG 1728 -48 Vcc
FLAG 2048 176 0
FLAG 2048 -176 Vcc
FLAG 944 256 TEMPO
FLAG 1904 -96 FAN_MOSDRIVE
FLAG 1728 352 0
FLAG -64 -832 0
FLAG -128 -976 HIP_DISABLE
FLAG 624 -272 0
FLAG -224 -240 0
FLAG 80 -240 0
FLAG 96 -560 5V
FLAG 624 -608 5V
FLAG 256 -928 0
FLAG 128 -896 0
FLAG 304 -176 5V
FLAG 352 160 0
SYMBOL LED 336 96 R0
WINDOW 3 -149 39 Left 2
SYMATTR InstName D1
SYMATTR Value NSSWS108T
SYMATTR Description Diode
SYMATTR Type diode
SYMBOL cap 752 304 R0
SYMATTR InstName C1
SYMATTR Value 470µ
SYMBOL res 912 288 R90
WINDOW 0 0 56 VBottom 2
WINDOW 3 32 56 VTop 2
SYMATTR InstName R3
SYMATTR Value 390k
SYMBOL pnp 704 208 M180
SYMATTR InstName Q2
SYMATTR Value BC807-40
SYMBOL res 624 144 R90
WINDOW 0 0 56 VBottom 2
WINDOW 3 32 56 VTop 2
SYMATTR InstName R4
SYMATTR Value 1k
SYMBOL voltage 144 -768 R0
WINDOW 123 0 0 Left 0
WINDOW 39 0 0 Left 0
SYMATTR InstName V1
SYMATTR Value 12
SYMBOL voltage 304 -768 R0
WINDOW 123 0 0 Left 0
WINDOW 39 0 0 Left 0
SYMATTR InstName V2
SYMATTR Value 5
SYMBOL res 640 -416 R180
WINDOW 0 36 76 Left 2
WINDOW 3 36 40 Left 2
SYMATTR InstName R7
SYMATTR Value 10k
SYMBOL cap -192 -384 R0
SYMATTR InstName C2
SYMATTR Value 100n
SYMBOL res 1312 64 R90
WINDOW 0 0 56 VBottom 2
WINDOW 3 32 56 VTop 2
SYMATTR InstName R8
SYMATTR Value 10k
SYMBOL res 1392 64 R90
WINDOW 0 0 56 VBottom 2
WINDOW 3 32 56 VTop 2
SYMATTR InstName R9
SYMATTR Value 10k
SYMBOL Comparators\\LTC6752 1184 176 R0
SYMATTR InstName U1
SYMBOL nmos 2000 -16 R0
SYMATTR InstName M1
SYMATTR Value BSB012N03LX3
SYMBOL res 2032 -144 R0
SYMATTR InstName R13
SYMATTR Value 20
SYMBOL res 1680 224 R90
WINDOW 0 0 56 VBottom 2
WINDOW 3 32 56 VTop 2
SYMATTR InstName R12
SYMATTR Value 1k
SYMBOL npn 1664 192 R0
SYMATTR InstName Q4
SYMATTR Value BC817-40
SYMBOL res 1744 64 R180
WINDOW 0 36 76 Left 2
WINDOW 3 36 40 Left 2
SYMATTR InstName R11
SYMATTR Value 1k
SYMBOL voltage -64 -928 R0
WINDOW 123 0 0 Left 0
WINDOW 39 0 0 Left 0
WINDOW 3 -183 161 Left 2
SYMATTR Value PULSE(0 5 25 5u 0 50 1 1)
SYMATTR InstName V4
SYMBOL npn 560 -432 R0
SYMATTR InstName Q3
SYMATTR Value BC817-40
SYMBOL Optos\\PC817B -32 -336 R0
SYMATTR InstName U2
SYMBOL Misc\\signal -368 -384 R0
WINDOW 123 0 0 Left 0
WINDOW 39 0 0 Left 0
SYMATTR InstName V3
SYMATTR Value PULSE(0 5 0 1n 1n 10 50 100)
SYMBOL res -176 -400 R90
WINDOW 0 0 56 VBottom 2
WINDOW 3 32 56 VTop 2
SYMATTR InstName R18
SYMATTR Value 1k
SYMBOL res 80 -528 R0
SYMATTR InstName R19
SYMATTR Value 1k
SYMBOL res 384 -400 R90
WINDOW 0 0 56 VBottom 2
WINDOW 3 32 56 VTop 2
SYMATTR InstName R5
SYMATTR Value 1k
SYMBOL res 96 -992 R90
WINDOW 0 0 56 VBottom 2
WINDOW 3 32 56 VTop 2
SYMATTR InstName R6
SYMATTR Value 1k
SYMBOL npn 192 -1024 R0
SYMATTR InstName Q5
SYMATTR Value BC817-40
SYMBOL res 112 -992 R0
SYMATTR InstName R10
SYMATTR Value 1k
SYMBOL pnp 288 16 M180
SYMATTR InstName Q1
SYMATTR Value BC807-40
SYMBOL res 112 -160 R0
SYMATTR InstName R1
SYMATTR Value 10k
SYMBOL res 208 -160 R0
SYMATTR InstName R2
SYMATTR Value 5.6k
SYMBOL res 336 0 R0
SYMATTR InstName R14
SYMATTR Value 470
TEXT -832 -288 Left 2 !.tran 0 300 0
TEXT 656 456 Left 2 ;|     C    (µFarads)  |       R  (kOhms)     |   Fall time (s) |\n|              470       |           220            |        71          |\n|              470       |           330            |        106        |\n|              470       |           390            |        125        |
