Version 4
SHEET 1 2240 804
WIRE -64 -976 -128 -976
WIRE 48 -976 -64 -976
WIRE -64 -912 -64 -976
WIRE 48 -752 48 -976
WIRE 48 -560 48 -672
WIRE 624 -544 624 -608
WIRE 624 -544 448 -544
WIRE 448 -512 448 -544
WIRE 624 -512 624 -544
WIRE 368 -496 48 -496
WIRE 240 -448 192 -448
WIRE 800 -432 624 -432
WIRE 368 -400 368 -496
WIRE 416 -400 368 -400
WIRE -576 -384 -672 -384
WIRE -480 -384 -496 -384
WIRE -432 -384 -480 -384
WIRE 192 -384 192 -448
WIRE 192 -384 -240 -384
WIRE 288 -384 192 -384
WIRE 416 -384 416 -400
WIRE 416 -384 368 -384
WIRE 448 -384 448 -432
WIRE 448 -384 416 -384
WIRE 560 -384 448 -384
WIRE -672 -368 -672 -384
WIRE -528 -288 -672 -288
WIRE -480 -288 -480 -320
WIRE -480 -288 -528 -288
WIRE -432 -288 -480 -288
WIRE -224 -288 -240 -288
WIRE -208 -288 -224 -288
WIRE 448 -288 368 -288
WIRE 496 -288 448 -288
WIRE 624 -272 624 -336
WIRE 368 -256 368 -288
WIRE -528 -240 -528 -288
WIRE -224 -240 -224 -288
WIRE 496 -192 496 -288
WIRE 976 -176 976 -208
WIRE 192 -144 192 -384
WIRE 256 -144 192 -144
WIRE 368 -144 368 -176
WIRE 368 -144 336 -144
WIRE 432 -144 368 -144
WIRE 848 -144 832 -144
WIRE 576 -96 496 -96
WIRE 704 -96 656 -96
WIRE 768 -96 704 -96
WIRE 928 -96 928 -144
WIRE 976 -96 976 -112
WIRE 976 -96 928 -96
WIRE 1072 -96 976 -96
WIRE 1136 -96 1072 -96
WIRE 976 -80 976 -96
WIRE 832 -16 832 -48
WIRE 1712 48 1712 0
WIRE 1296 144 1296 80
WIRE 1296 144 1104 144
WIRE 1712 160 1712 128
WIRE 1104 224 1104 144
WIRE 1152 224 1104 224
WIRE 1568 240 1568 80
WIRE 1568 240 1216 240
WIRE 1664 240 1568 240
WIRE 1072 256 1072 -96
WIRE 1152 256 1072 256
WIRE 1712 352 1712 256
FLAG 976 -16 0
FLAG 144 -672 0
FLAG 144 -752 Vcc
FLAG 304 -672 0
FLAG 304 -752 5V
FLAG -672 -384 PUMP_SPY_LINE
FLAG 800 -432 RESET_LINE
FLAG 1184 208 5V
FLAG 1184 272 0
FLAG 1216 80 5V
FLAG 1376 80 0
FLAG 1712 352 0
FLAG 1712 0 Vcc
FLAG 1136 -96 TEMPO
FLAG 1568 80 FAN_MOSDRIVE
FLAG -64 -832 0
FLAG -128 -976 HIP_DISABLE
FLAG 624 -272 0
FLAG -528 -240 0
FLAG -224 -240 0
FLAG 624 -608 5V
FLAG 448 -288 5V
FLAG 496 48 0
FLAG 240 -448 Interm
FLAG 832 -16 0
FLAG 976 -208 5V
FLAG 704 -16 0
SYMBOL LED 480 -16 R0
WINDOW 3 -149 39 Left 2
SYMATTR Value NSSWS108T
SYMATTR InstName D1
SYMATTR Description Diode
SYMATTR Type diode
SYMBOL cap 960 -80 R0
SYMATTR InstName C1
SYMATTR Value 470µ
SYMBOL voltage 144 -768 R0
WINDOW 123 0 0 Left 0
WINDOW 39 0 0 Left 0
SYMATTR InstName V1
SYMATTR Value 12
SYMBOL voltage 304 -768 R0
WINDOW 123 0 0 Left 0
WINDOW 39 0 0 Left 0
SYMATTR InstName V2
SYMATTR Value 5
SYMBOL res 640 -416 R180
WINDOW 0 36 76 Left 2
WINDOW 3 36 40 Left 2
SYMATTR InstName R7
SYMATTR Value 10k
SYMBOL cap -496 -384 R0
SYMATTR InstName C2
SYMATTR Value 100n
SYMBOL res 1312 64 R90
WINDOW 0 0 56 VBottom 2
WINDOW 3 32 56 VTop 2
SYMATTR InstName R8
SYMATTR Value 10k
SYMBOL res 1392 64 R90
WINDOW 0 0 56 VBottom 2
WINDOW 3 32 56 VTop 2
SYMATTR InstName R9
SYMATTR Value 10k
SYMBOL Comparators\\LTC6752 1184 176 R0
SYMATTR InstName U1
SYMBOL nmos 1664 160 R0
SYMATTR InstName M1
SYMATTR Value BSB012N03LX3
SYMBOL res 1696 32 R0
SYMATTR InstName R13
SYMATTR Value 20
SYMBOL voltage -64 -928 R0
WINDOW 123 0 0 Left 0
WINDOW 39 0 0 Left 0
WINDOW 3 -183 161 Left 2
SYMATTR Value PULSE(0 5 25 5u 0 50 1 1)
SYMATTR InstName V4
SYMBOL npn 560 -432 R0
SYMATTR InstName Q3
SYMATTR Value BC817-40
SYMBOL Optos\\PC817B -336 -336 R0
SYMATTR InstName U2
SYMBOL Misc\\signal -672 -384 R0
WINDOW 123 0 0 Left 0
WINDOW 39 0 0 Left 0
SYMATTR InstName V3
SYMATTR Value PULSE(0 5 0 1n 1n 10 50 100)
SYMBOL res -480 -400 R90
WINDOW 0 0 56 VBottom 2
WINDOW 3 32 56 VTop 2
SYMATTR InstName R18
SYMATTR Value 1k
SYMBOL res 384 -400 R90
WINDOW 0 0 56 VBottom 2
WINDOW 3 32 56 VTop 2
SYMATTR InstName R5
SYMATTR Value 1k
SYMBOL pnp 432 -96 M180
SYMATTR InstName Q1
SYMATTR Value BC807-40
SYMBOL res 352 -272 R0
SYMATTR InstName R2
SYMATTR Value 1.5k
SYMBOL res 480 -112 R0
SYMATTR InstName R14
SYMATTR Value 470
SYMBOL res 352 -160 R90
WINDOW 0 0 56 VBottom 2
WINDOW 3 32 56 VTop 2
SYMATTR InstName R16
SYMATTR Value 10k
SYMBOL res 464 -416 R180
WINDOW 0 36 76 Left 2
WINDOW 3 36 40 Left 2
SYMATTR InstName R17
SYMATTR Value 56k
SYMBOL npn 768 -144 R0
SYMATTR InstName Q2
SYMATTR Value BC817-40
SYMBOL diode 960 -176 R0
SYMATTR InstName D2
SYMATTR Value 1N4148
SYMBOL res 944 -160 R90
WINDOW 0 0 56 VBottom 2
WINDOW 3 32 56 VTop 2
SYMATTR InstName R4
SYMATTR Value 390k
SYMBOL res 672 -112 R90
WINDOW 0 0 56 VBottom 2
WINDOW 3 32 56 VTop 2
SYMATTR InstName R1
SYMATTR Value 1k
SYMBOL res 720 0 R180
WINDOW 0 36 76 Left 2
WINDOW 3 36 40 Left 2
SYMATTR InstName R3
SYMATTR Value 56k
SYMBOL diode 32 -560 R0
SYMATTR InstName D3
SYMATTR Value 1N4148
SYMBOL res 64 -656 R180
WINDOW 0 36 76 Left 2
WINDOW 3 36 40 Left 2
SYMATTR InstName R6
SYMATTR Value 1k
TEXT -1136 -288 Left 2 !.tran 0 300 0
TEXT 656 456 Left 2 ;|     C    (µFarads)  |       R  (kOhms)     |   Fall time (s) |\n|              470       |           220            |        71          |\n|              470       |           330            |        106        |\n|              470       |           390            |        125        |
