Version 4
SHEET 1 2240 804
WIRE 704 -432 528 -432
WIRE 112 -384 -32 -384
WIRE 160 -384 112 -384
WIRE 256 -384 240 -384
WIRE 288 -384 256 -384
WIRE 432 -384 288 -384
WIRE 464 -384 432 -384
WIRE 432 -368 432 -384
WIRE 112 -352 112 -384
WIRE 288 -272 288 -320
WIRE 432 -272 432 -288
WIRE 528 -224 528 -336
WIRE 256 -160 256 -384
WIRE 256 -160 -224 -160
WIRE 2048 -128 2048 -176
WIRE 1728 -32 1728 -48
WIRE 2048 -16 2048 -48
WIRE 1728 64 1728 48
WIRE 1904 64 1904 -96
WIRE 1904 64 1728 64
WIRE 2000 64 1904 64
WIRE 768 112 768 0
WIRE 256 144 256 64
WIRE 256 144 240 144
WIRE 400 144 256 144
WIRE 1296 144 1296 80
WIRE 1296 144 1104 144
WIRE 400 160 400 144
WIRE 528 160 400 160
WIRE 704 160 608 160
WIRE 2048 176 2048 80
WIRE -224 192 -224 -160
WIRE 48 192 -224 192
WIRE 144 192 128 192
WIRE 176 192 144 192
WIRE 1728 192 1728 64
WIRE 144 208 144 192
WIRE 1152 224 912 224
WIRE 1472 240 1216 240
WIRE 1584 240 1472 240
WIRE 768 256 768 208
WIRE 912 256 912 224
WIRE 912 256 768 256
WIRE 944 256 912 256
WIRE 1104 256 1104 144
WIRE 1152 256 1104 256
WIRE 240 272 240 240
WIRE 768 304 768 256
WIRE 816 304 768 304
WIRE 1728 352 1728 288
WIRE -224 368 -224 192
WIRE 160 368 -224 368
WIRE 896 368 896 304
WIRE 160 528 160 368
WIRE -288 576 -352 576
WIRE -32 576 -288 576
WIRE 80 576 48 576
WIRE 96 576 80 576
WIRE -288 640 -288 576
WIRE 80 640 80 576
WIRE 160 656 160 624
FLAG 240 272 0
FLAG 256 -80 Vcc
FLAG 768 368 0
FLAG 896 368 0
FLAG 768 0 5V
FLAG 128 -512 0
FLAG 128 -592 Vcc
FLAG 288 -512 0
FLAG 288 -592 5V
FLAG 112 -272 0
FLAG 528 -224 0
FLAG 432 -272 0
FLAG 528 -512 Vcc
FLAG 288 -272 0
FLAG -32 -384 PUMP_SPY_LINE
FLAG 704 -432 RESET_LINE
FLAG 1184 208 5V
FLAG 1184 272 0
FLAG 1216 80 5V
FLAG 1376 80 0
FLAG 1472 240 NOT_FAN_TRIGGER
FLAG 1728 -48 Vcc
FLAG 2048 176 0
FLAG 2048 -176 Vcc
FLAG 944 256 TEMPO
FLAG 1904 -96 FAN_MOSDRIVE
FLAG 1728 352 0
FLAG 160 656 0
FLAG 80 720 0
FLAG -288 720 0
FLAG 144 288 0
FLAG -352 576 HIP_DISABLE
SYMBOL npn 176 144 R0
SYMATTR InstName Q1
SYMATTR Value BC817-40
SYMBOL res 144 176 R90
WINDOW 0 0 56 VBottom 2
WINDOW 3 32 56 VTop 2
SYMATTR InstName R1
SYMATTR Value 1k
SYMBOL res 272 80 R180
WINDOW 0 36 76 Left 2
WINDOW 3 36 40 Left 2
SYMATTR InstName R2
SYMATTR Value 470
SYMBOL LED 240 -80 R0
SYMATTR InstName D1
SYMATTR Value NSSWS108T
SYMATTR Description Diode
SYMATTR Type diode
SYMBOL cap 752 304 R0
SYMATTR InstName C1
SYMATTR Value 470µ
SYMBOL res 912 288 R90
WINDOW 0 0 56 VBottom 2
WINDOW 3 32 56 VTop 2
SYMATTR InstName R3
SYMATTR Value 390k
SYMBOL pnp 704 208 M180
SYMATTR InstName Q2
SYMATTR Value BC807-40
SYMBOL res 624 144 R90
WINDOW 0 0 56 VBottom 2
WINDOW 3 32 56 VTop 2
SYMATTR InstName R4
SYMATTR Value 1k
SYMBOL voltage 128 -608 R0
WINDOW 123 0 0 Left 0
WINDOW 39 0 0 Left 0
SYMATTR InstName V1
SYMATTR Value 12
SYMBOL voltage 288 -608 R0
WINDOW 123 0 0 Left 0
WINDOW 39 0 0 Left 0
SYMATTR InstName V2
SYMATTR Value 5
SYMBOL pnp 464 -336 M180
SYMATTR InstName Q3
SYMATTR Value BC807-40
SYMBOL res 256 -400 R90
WINDOW 0 0 56 VBottom 2
WINDOW 3 32 56 VTop 2
SYMATTR InstName R5
SYMATTR Value 1k
SYMBOL res 448 -272 R180
WINDOW 0 36 76 Left 2
WINDOW 3 36 40 Left 2
SYMATTR InstName R6
SYMATTR Value 56k
SYMBOL voltage 112 -368 R0
WINDOW 123 0 0 Left 0
WINDOW 39 0 0 Left 0
WINDOW 3 -183 161 Left 2
SYMATTR InstName V3
SYMATTR Value PULSE(0 12 0 5u 0 100 1 1)
SYMBOL res 544 -416 R180
WINDOW 0 36 76 Left 2
WINDOW 3 36 40 Left 2
SYMATTR InstName R7
SYMATTR Value 1k
SYMBOL cap 272 -384 R0
SYMATTR InstName C2
SYMATTR Value 100n
SYMBOL res 1312 64 R90
WINDOW 0 0 56 VBottom 2
WINDOW 3 32 56 VTop 2
SYMATTR InstName R8
SYMATTR Value 10k
SYMBOL res 1392 64 R90
WINDOW 0 0 56 VBottom 2
WINDOW 3 32 56 VTop 2
SYMATTR InstName R9
SYMATTR Value 10k
SYMBOL Comparators\\LTC6752 1184 176 R0
SYMATTR InstName U1
SYMBOL nmos 2000 -16 R0
SYMATTR InstName M1
SYMATTR Value BSB012N03LX3
SYMBOL res 2032 -144 R0
SYMATTR InstName R13
SYMATTR Value 20
SYMBOL res 1680 224 R90
WINDOW 0 0 56 VBottom 2
WINDOW 3 32 56 VTop 2
SYMATTR InstName R12
SYMATTR Value 1k
SYMBOL npn 1664 192 R0
SYMATTR InstName Q4
SYMATTR Value BC817-40
SYMBOL res 1744 64 R180
WINDOW 0 36 76 Left 2
WINDOW 3 36 40 Left 2
SYMATTR InstName R11
SYMATTR Value 1k
SYMBOL npn 96 528 R0
SYMATTR InstName Q5
SYMATTR Value BC817-40
SYMBOL res 64 560 R90
WINDOW 0 0 56 VBottom 2
WINDOW 3 32 56 VTop 2
SYMATTR InstName R10
SYMATTR Value 1k
SYMBOL res 96 736 R180
WINDOW 0 36 76 Left 2
WINDOW 3 36 40 Left 2
SYMATTR InstName R14
SYMATTR Value 56k
SYMBOL voltage -288 624 R0
WINDOW 123 0 0 Left 0
WINDOW 39 0 0 Left 0
WINDOW 3 -183 161 Left 2
SYMATTR InstName V4
SYMATTR Value PULSE(0 5 25 5u 0 50 1 1)
SYMBOL res 160 304 R180
WINDOW 0 36 76 Left 2
WINDOW 3 36 40 Left 2
SYMATTR InstName R15
SYMATTR Value 56k
TEXT -320 -320 Left 2 !.tran 0 300 0
TEXT 656 456 Left 2 ;|     C    (µFarads)  |       R  (kOhms)     |   Fall time (s) |\n|              470       |           220            |        71          |\n|              470       |           330            |        106        |\n|              470       |           390            |        125        |
