Version 4
SHEET 1 2240 804
WIRE 336 -544 192 -544
WIRE 640 -528 400 -528
WIRE -80 -512 -80 -560
WIRE 336 -512 288 -512
WIRE 1280 -448 1152 -448
WIRE -576 -384 -672 -384
WIRE -480 -384 -496 -384
WIRE -432 -384 -480 -384
WIRE -80 -384 -80 -432
WIRE -80 -384 -240 -384
WIRE 192 -384 192 -544
WIRE 192 -384 -80 -384
WIRE -672 -368 -672 -384
WIRE 1856 -304 1856 -352
WIRE -528 -288 -672 -288
WIRE -480 -288 -480 -320
WIRE -480 -288 -528 -288
WIRE -432 -288 -480 -288
WIRE -224 -288 -240 -288
WIRE -528 -240 -528 -288
WIRE -224 -240 -224 -288
WIRE 1856 -192 1856 -224
WIRE 192 -176 192 -384
WIRE 336 -176 192 -176
WIRE 496 -160 400 -160
WIRE 336 -144 288 -144
WIRE 1296 -128 1264 -128
WIRE 1712 -112 1712 -272
WIRE 1712 -112 1360 -112
WIRE 1808 -112 1712 -112
WIRE 496 -96 496 -160
WIRE 656 -96 496 -96
WIRE 768 -96 720 -96
WIRE 864 -96 768 -96
WIRE 1152 -96 1152 -448
WIRE 1152 -96 864 -96
WIRE 1296 -96 1152 -96
WIRE 1856 -32 1856 -96
WIRE 1856 -32 1712 -32
WIRE 768 -16 768 -32
WIRE 816 -16 768 -16
WIRE 864 -16 816 -16
WIRE 1856 0 1856 -32
WIRE 816 48 816 -16
FLAG -448 -704 0
FLAG -448 -784 Vcc
FLAG -288 -704 0
FLAG -288 -784 5V
FLAG -672 -384 PUMP_SPY_LINE
FLAG 640 -528 RESET_LINE
FLAG 1328 -144 5V
FLAG 1328 -80 0
FLAG 1856 0 0
FLAG 1856 -352 Vcc
FLAG 1280 -448 TEMPO
FLAG 1712 -272 FAN_MOSDRIVE
FLAG -528 -240 0
FLAG -224 -240 0
FLAG 496 48 0
FLAG 816 48 0
FLAG 368 -192 5V
FLAG 368 -128 0
FLAG -80 -560 5V
FLAG -128 -704 0
FLAG -128 -784 2.5V
FLAG 288 -144 2.5V
FLAG 1264 -128 2.5V
FLAG 368 -560 5V
FLAG 368 -496 0
FLAG 288 -512 2.5V
SYMBOL LED 480 -16 R0
WINDOW 3 -149 39 Left 2
SYMATTR Value NSSWS108T
SYMATTR InstName D1
SYMATTR Description Diode
SYMATTR Type diode
SYMBOL cap 752 -96 R0
SYMATTR InstName C1
SYMATTR Value 470µ
SYMBOL voltage -448 -800 R0
WINDOW 123 0 0 Left 0
WINDOW 39 0 0 Left 0
SYMATTR InstName V1
SYMATTR Value 12
SYMBOL voltage -288 -800 R0
WINDOW 123 0 0 Left 0
WINDOW 39 0 0 Left 0
SYMATTR InstName V2
SYMATTR Value 5
SYMBOL cap -496 -384 R0
SYMATTR InstName C2
SYMATTR Value 100n
SYMBOL Comparators\\LTC6752 1328 -176 R0
SYMATTR InstName U1
SYMBOL nmos 1808 -192 R0
SYMATTR InstName M1
SYMATTR Value BSB012N03LX3
SYMBOL res 1840 -320 R0
SYMATTR InstName R13
SYMATTR Value 20
SYMBOL Optos\\PC817B -336 -336 R0
SYMATTR InstName U2
SYMBOL Misc\\signal -672 -384 R0
WINDOW 123 0 0 Left 0
WINDOW 39 0 0 Left 0
SYMATTR InstName V3
SYMATTR Value PULSE(0 5 0 1n 1n 10 130 100)
SYMBOL res -480 -400 R90
WINDOW 0 0 56 VBottom 2
WINDOW 3 32 56 VTop 2
SYMATTR InstName R18
SYMATTR Value 1k
SYMBOL res 480 -112 R0
SYMATTR InstName R14
SYMATTR Value 470
SYMBOL res 848 -112 R0
SYMATTR InstName R4
SYMATTR Value 390k
SYMBOL diode 656 -80 R270
WINDOW 0 32 32 VTop 2
WINDOW 3 0 32 VBottom 2
SYMATTR InstName D2
SYMATTR Value 1N4148
SYMBOL res 1728 -16 R180
WINDOW 0 36 76 Left 2
WINDOW 3 36 40 Left 2
SYMATTR InstName R1
SYMATTR Value 1k
SYMBOL Comparators\\LTC6752 368 -224 R0
SYMATTR InstName U3
SYMBOL res -64 -416 R180
WINDOW 0 36 76 Left 2
WINDOW 3 36 40 Left 2
SYMATTR InstName R3
SYMATTR Value 1k
SYMBOL voltage -128 -800 R0
WINDOW 123 0 0 Left 0
WINDOW 39 0 0 Left 0
SYMATTR InstName V4
SYMATTR Value 2.5
SYMBOL Comparators\\LTC6752 368 -592 R0
SYMATTR InstName U4
TEXT -1136 -288 Left 2 !.tran 0 300 0
TEXT 656 456 Left 2 ;|     C    (µFarads)  |       R  (kOhms)     |   Fall time (s) |\n|              470       |           220            |        71          |\n|              470       |           330            |        106        |\n|              470       |           390            |        125        |
TEXT 344 64 Left 2 ;Pump ON\nLED
TEXT 736 -192 Left 2 ;Timing RC tank
TEXT 248 -712 Left 2 ;NE555 reset circuitry\nForces reset line to 0.2V when pump\nis inactive
TEXT 1168 -552 Left 2 ;Timing comparator\nDrives the cooling fan main mosfet driver
TEXT 240 -336 Left 2 ;This plays the role of a single \ninverter (not gate, rail to rail output)
RECTANGLE Normal 976 80 640 -160 2
RECTANGLE Normal 1616 80 1120 -480 2
RECTANGLE Normal 576 176 208 -272 2
RECTANGLE Normal 800 -432 208 -624 2
