Version 4
SHEET 1 880 1268
WIRE -320 -480 -448 -480
WIRE -224 -480 -320 -480
WIRE -160 -480 -224 -480
WIRE 32 -480 -160 -480
WIRE -448 -384 -448 -480
WIRE -320 -256 -320 -480
WIRE -368 -240 -384 -240
WIRE -160 -240 -160 -480
WIRE -448 -208 -448 -304
WIRE -384 -208 -384 -240
WIRE -384 -208 -448 -208
WIRE -960 -160 -1040 -160
WIRE -736 -160 -960 -160
WIRE -576 -160 -656 -160
WIRE -512 -160 -576 -160
WIRE -160 -160 -320 -160
WIRE -512 -128 -512 -160
WIRE -496 -128 -512 -128
WIRE 128 -128 -96 -128
WIRE -448 -64 -448 -112
WIRE 32 -64 32 -480
WIRE -1792 -48 -1808 -48
WIRE -1632 -48 -1648 -48
WIRE -160 -48 -160 -160
WIRE -160 -48 -256 -48
WIRE -96 -48 -96 -128
WIRE -96 -48 -160 -48
WIRE -16 -48 -96 -48
WIRE -864 0 -1040 0
WIRE -624 0 -864 0
WIRE -432 0 -544 0
WIRE -1792 32 -1792 -48
WIRE -1632 32 -1632 -48
WIRE -432 32 -432 0
WIRE -304 32 -432 32
WIRE -960 64 -960 -160
WIRE -864 64 -864 0
WIRE -1792 144 -1792 112
WIRE -1632 144 -1632 112
WIRE -960 192 -960 144
WIRE -864 192 -864 144
WIRE -448 256 -496 256
WIRE -320 256 -448 256
WIRE 32 288 32 32
WIRE 144 288 32 288
WIRE 256 288 224 288
WIRE -448 352 -448 256
WIRE -320 480 -320 256
WIRE -368 496 -384 496
WIRE -448 528 -448 432
WIRE -384 528 -384 496
WIRE -384 528 -448 528
WIRE -960 576 -1024 576
WIRE -736 576 -960 576
WIRE -576 576 -656 576
WIRE -512 576 -576 576
WIRE -160 576 -320 576
WIRE -512 608 -512 576
WIRE -496 608 -512 608
WIRE 128 608 -96 608
WIRE -448 672 -448 624
WIRE 32 672 32 288
WIRE -160 688 -160 576
WIRE -160 688 -256 688
WIRE -96 688 -96 608
WIRE -96 688 -160 688
WIRE -80 688 -96 688
WIRE -864 736 -1024 736
WIRE -624 736 -864 736
WIRE -432 736 -544 736
WIRE -80 752 -80 688
WIRE -16 752 -80 752
WIRE -432 768 -432 736
WIRE -304 768 -432 768
WIRE -960 800 -960 576
WIRE -864 800 -864 736
WIRE -80 896 -80 832
WIRE 32 896 32 768
WIRE -960 928 -960 880
WIRE -864 928 -864 880
FLAG -864 192 0
FLAG -1632 144 0
FLAG -1648 -48 Vcc
FLAG -224 -480 Vcc
FLAG -1792 144 0
FLAG -1808 -48 5V
FLAG -960 192 0
FLAG -448 -64 0
FLAG 128 -128 HighGate
FLAG -256 48 0
FLAG -432 112 0
FLAG -576 -80 0
FLAG -864 928 0
FLAG 32 896 0
FLAG -960 928 0
FLAG -448 672 0
FLAG 128 608 LowGate
FLAG -256 784 0
FLAG -432 848 0
FLAG -576 656 0
FLAG -496 256 Vcc
FLAG 320 288 0
FLAG -1024 736 LowDriver_lowgate
FLAG -1024 576 HighDriver_lowgate
FLAG -1040 -160 HighDriver_highgate
FLAG -1040 0 LowDriver_highgate
FLAG -80 896 0
SYMBOL Misc\\signal -864 48 R0
WINDOW 3 -2 224 Left 2
WINDOW 123 0 0 Left 0
WINDOW 39 0 0 Left 0
SYMATTR InstName V1
SYMATTR Value PULSE(0 5 0.1u 1n 1n 2u 5u 1k)
SYMBOL voltage -1632 16 R0
WINDOW 123 0 0 Left 0
WINDOW 39 0 0 Left 0
SYMATTR InstName V3
SYMATTR Value 12
SYMBOL voltage -1792 16 R0
WINDOW 123 0 0 Left 0
WINDOW 39 0 0 Left 0
SYMATTR InstName V4
SYMATTR Value 5
SYMBOL pmos -16 32 M180
SYMATTR InstName M3
SYMATTR Value AON7423
SYMBOL Misc\\signal -960 48 R0
WINDOW 3 -241 265 Left 2
WINDOW 123 0 0 Left 0
WINDOW 39 0 0 Left 0
SYMATTR InstName V2
SYMATTR Value PULSE(0 5 2.6u 1n 1n 2u 5u 1k)
SYMBOL res -640 -176 R90
WINDOW 0 0 56 VBottom 2
WINDOW 3 32 56 VTop 2
SYMATTR InstName R1
SYMATTR Value 100
SYMBOL res -464 -400 R0
SYMATTR InstName R2
SYMATTR Value 100
SYMBOL res -528 -16 R90
WINDOW 0 0 56 VBottom 2
WINDOW 3 32 56 VTop 2
SYMATTR InstName R3
SYMATTR Value 100
SYMBOL pmos -368 -160 M180
SYMATTR InstName M1
SYMATTR Value AO3423
SYMBOL nmos -304 -48 R0
SYMATTR InstName M2
SYMATTR Value RSQ015N06
SYMBOL res -448 16 R0
SYMATTR InstName R5
SYMATTR Value 5.6k
SYMBOL nmos -496 -208 R0
SYMATTR InstName M4
SYMATTR Value RSQ015N06
SYMBOL res -592 -176 R0
SYMATTR InstName R6
SYMATTR Value 5.6k
SYMBOL res -640 560 R90
WINDOW 0 0 56 VBottom 2
WINDOW 3 32 56 VTop 2
SYMATTR InstName R7
SYMATTR Value 100
SYMBOL res -464 336 R0
SYMATTR InstName R8
SYMATTR Value 100
SYMBOL res -528 720 R90
WINDOW 0 0 56 VBottom 2
WINDOW 3 32 56 VTop 2
SYMATTR InstName R9
SYMATTR Value 100
SYMBOL pmos -368 576 M180
SYMATTR InstName M6
SYMATTR Value AO3423
SYMBOL nmos -304 688 R0
SYMATTR InstName M7
SYMATTR Value RSQ015N06
SYMBOL res -448 752 R0
SYMATTR InstName R11
SYMATTR Value 5.6k
SYMBOL nmos -496 528 R0
SYMATTR InstName M8
SYMATTR Value RSQ015N06
SYMBOL res -592 560 R0
SYMATTR InstName R12
SYMATTR Value 5.6k
SYMBOL nmos -16 672 R0
SYMATTR InstName M5
SYMATTR Value BSB012N03MX3
SYMBOL cap 320 272 R90
WINDOW 0 0 32 VBottom 2
WINDOW 3 32 32 VTop 2
SYMATTR InstName C1
SYMATTR Value 100n
SYMBOL Misc\\signal -960 784 R0
WINDOW 3 -241 265 Left 2
WINDOW 123 0 0 Left 0
WINDOW 39 0 0 Left 0
SYMATTR InstName V5
SYMATTR Value PULSE(0 5 2.8u 1n 1n 1.8u 5u 1k)
SYMBOL Misc\\signal -864 784 R0
WINDOW 3 -2 224 Left 2
WINDOW 123 0 0 Left 0
WINDOW 39 0 0 Left 0
SYMATTR InstName V6
SYMATTR Value PULSE(0 5 4.9u 1n 1n 2.5u 5u 1k)
SYMBOL res -176 -256 R0
SYMATTR InstName R4
SYMATTR Value 1k
SYMBOL res -96 736 R0
SYMATTR InstName R10
SYMATTR Value 1k
SYMBOL res 240 272 R90
WINDOW 0 0 56 VBottom 2
WINDOW 3 32 56 VTop 2
SYMATTR InstName R13
SYMATTR Value 2
TEXT -1438 888 Left 2 !.tran 0 50u 0u
