Version 4
SHEET 1 880 680
WIRE -16 32 -32 32
WIRE 192 64 112 64
WIRE 336 64 272 64
WIRE -16 80 -16 32
WIRE 336 160 336 64
WIRE 448 160 336 160
WIRE -16 176 -16 160
WIRE 112 176 112 64
WIRE 112 176 -16 176
WIRE 128 176 112 176
WIRE -16 192 -16 176
WIRE 336 192 336 160
WIRE 336 192 256 192
WIRE 128 208 128 176
WIRE 192 208 128 208
WIRE -16 320 -16 272
WIRE 0 320 -16 320
FLAG 224 224 0
FLAG -16 320 0
FLAG 224 160 5V
FLAG -32 32 5V
FLAG -224 176 0
FLAG -224 96 SIG
FLAG 192 176 SIG
FLAG -336 176 0
FLAG -336 96 5V
FLAG 448 160 Out
SYMBOL Comparators\\LTC6752 224 128 R0
SYMATTR InstName U1
SYMBOL res -32 176 R0
SYMATTR InstName R1
SYMATTR Value {Ra}
SYMBOL res -32 64 R0
SYMATTR InstName R2
SYMATTR Value {Rb}
SYMBOL res 288 48 R90
WINDOW 0 0 56 VBottom 2
WINDOW 3 32 56 VTop 2
SYMATTR InstName R3
SYMATTR Value 56k
SYMBOL Misc\\signal -224 80 R0
WINDOW 123 0 0 Left 0
WINDOW 39 0 0 Left 0
SYMATTR InstName V1
SYMATTR Value SINE(2.5 2 3K)
SYMBOL voltage -336 80 R0
WINDOW 123 0 0 Left 0
WINDOW 39 0 0 Left 0
SYMATTR InstName V2
SYMATTR Value 5
TEXT -368 344 Left 2 !.tran 1m
TEXT 424 296 Left 2 !.param Ra=R*(Val/100)
TEXT 424 264 Left 2 !.param Rb=R*(1-(Val/100))
TEXT 424 224 Left 2 !.param R=10k Val=50
